Version 4
SHEET 1 880 680
WIRE 624 -48 -112 -48
WIRE -112 -32 -112 -48
WIRE -112 64 -112 48
WIRE 96 64 -112 64
WIRE 368 64 320 64
WIRE 624 64 624 -48
WIRE 624 64 368 64
WIRE 96 128 64 128
WIRE 368 128 368 64
WIRE 368 128 320 128
WIRE -112 144 -112 64
WIRE 624 176 624 64
WIRE 64 192 64 128
WIRE 64 192 0 192
WIRE 96 192 64 192
WIRE 496 192 320 192
WIRE 496 224 496 192
WIRE -112 256 -112 224
WIRE -112 256 -208 256
WIRE 0 256 0 192
WIRE 0 256 -112 256
WIRE 96 256 64 256
WIRE 368 256 320 256
WIRE 368 288 368 256
WIRE -112 320 -112 256
WIRE -112 416 -112 384
WIRE -112 416 -208 416
WIRE 64 416 64 256
WIRE 64 416 -112 416
WIRE 208 416 64 416
WIRE 368 416 368 352
WIRE 368 416 208 416
WIRE 496 416 496 368
WIRE 496 416 368 416
WIRE 624 416 624 208
WIRE 624 416 496 416
WIRE 208 432 208 416
FLAG 208 432 0
SYMBOL cap -128 320 R0
SYMATTR InstName C1
SYMATTR Value 100µ
SYMBOL cap 352 288 R0
SYMATTR InstName C2
SYMATTR Value 0.01µ
SYMBOL res -128 -48 R0
SYMATTR InstName R1
SYMATTR Value 1k
SYMBOL res -128 128 R0
SYMATTR InstName R2
SYMATTR Value 6.8k
SYMBOL MiniSyms4\\voltage- 624 192 R0
WINDOW 123 0 0 Left 2
WINDOW 39 0 0 Left 2
SYMATTR InstName V1
SYMATTR Value 9
SYMBOL LED 480 304 R0
SYMATTR InstName D1
SYMBOL res 480 208 R0
SYMATTR InstName R3
SYMATTR Value 330
SYMBOL Robertugo\\555_all 256 176 R0
SYMATTR InstName U1
TEXT 144 344 Left 2 !.tran 10 startup
