Version 4
SHEET 1 880 680
WIRE 336 64 112 64
WIRE 112 112 112 64
WIRE 80 128 -352 128
WIRE 192 144 144 144
WIRE 224 144 192 144
WIRE -352 160 -352 128
WIRE 80 160 32 160
WIRE 336 160 336 96
WIRE 400 160 336 160
WIRE 336 192 336 160
WIRE 400 192 400 160
WIRE 112 224 112 176
WIRE 336 224 112 224
WIRE 32 288 32 160
WIRE 80 288 32 288
WIRE 192 288 192 144
WIRE 192 288 160 288
WIRE 32 352 32 288
FLAG 400 192 0
FLAG -352 192 0
FLAG 32 432 0
SYMBOL EXTRA\\AudioOpamp\\AD\\OP249 112 144 R0
WINDOW 3 -78 -47 Left 2
SYMATTR InstName U1
SYMBOL MiniSyms4\\voltage- 336 80 R0
WINDOW 123 0 0 Left 2
WINDOW 39 0 0 Left 2
SYMATTR InstName V1
SYMATTR Value 10
SYMBOL MiniSyms4\\voltage- 336 208 R0
WINDOW 123 0 0 Left 2
WINDOW 39 0 0 Left 2
SYMATTR InstName V2
SYMATTR Value 10
SYMBOL res 64 304 R270
WINDOW 0 32 56 VTop 2
WINDOW 3 0 56 VBottom 2
SYMATTR InstName R2
SYMATTR Value 10k
SYMBOL res 48 448 R180
WINDOW 0 36 76 Left 2
WINDOW 3 36 40 Left 2
SYMATTR InstName R1
SYMATTR Value 1k
SYMBOL MiniSyms4\\voltage- -352 176 R0
WINDOW 123 0 0 Left 2
WINDOW 39 0 0 Left 2
SYMATTR InstName V3
SYMATTR Value SINE(0 1 1k)
TEXT -376 240 Left 2 !.tran 1m
