Version 4
SHEET 1 880 680
WIRE 576 64 112 64
WIRE 400 96 0 96
WIRE 112 112 112 64
WIRE 0 128 0 96
WIRE 80 128 0 128
WIRE 224 144 144 144
WIRE 256 144 224 144
WIRE 400 144 400 96
WIRE 400 144 336 144
WIRE 80 160 16 160
WIRE 576 160 576 96
WIRE 640 160 576 160
WIRE 576 192 576 160
WIRE 640 192 640 160
WIRE 112 224 112 176
WIRE 576 224 112 224
WIRE 400 272 400 144
WIRE 16 288 16 160
WIRE 80 288 16 288
WIRE 224 288 224 144
WIRE 224 288 160 288
WIRE 16 352 16 288
FLAG 640 192 0
FLAG 400 336 0
FLAG 16 432 0
SYMBOL EXTRA\\AudioOpamp\\AD\\OP249 112 144 R0
SYMATTR InstName U1
SYMBOL MiniSyms4\\voltage- 576 80 R0
WINDOW 123 0 0 Left 2
WINDOW 39 0 0 Left 2
SYMATTR InstName V1
SYMATTR Value 10
SYMBOL MiniSyms4\\voltage- 576 208 R0
WINDOW 123 0 0 Left 2
WINDOW 39 0 0 Left 2
SYMATTR InstName V2
SYMATTR Value 10
SYMBOL res 352 128 R90
WINDOW 0 0 56 VBottom 2
WINDOW 3 32 56 VTop 2
SYMATTR InstName R1
SYMATTR Value 34k
SYMBOL cap 384 272 R0
SYMATTR InstName C1
SYMATTR Value 10µ
SYMBOL res 176 272 R90
WINDOW 0 0 56 VBottom 2
WINDOW 3 32 56 VTop 2
SYMATTR InstName R2
SYMATTR Value 10k
SYMBOL res 32 448 R180
WINDOW 0 36 76 Left 2
WINDOW 3 36 40 Left 2
SYMATTR InstName R3
SYMATTR Value 100k
TEXT -58 456 Left 2 !.tran 4
