Version 4
SHEET 1 880 680
WIRE 112 112 -32 112
WIRE 336 112 192 112
WIRE 480 112 336 112
WIRE 336 144 336 112
WIRE 480 144 480 112
WIRE -32 160 -32 112
WIRE -32 272 -32 240
WIRE 336 272 336 208
WIRE 336 272 -32 272
WIRE 480 272 480 208
WIRE 480 272 336 272
FLAG 336 272 0
FLAG 480 112 out
SYMBOL res 208 96 R90
WINDOW 0 0 56 VBottom 2
WINDOW 3 32 56 VTop 2
SYMATTR InstName R1
SYMATTR Value 1k
SYMBOL diode 464 144 R0
SYMATTR InstName D1
SYMATTR Value 1N914
SYMBOL diode 352 208 R180
WINDOW 0 24 64 Left 2
WINDOW 3 24 0 Left 2
SYMATTR InstName D2
SYMATTR Value 1N914
SYMBOL voltage -32 144 R0
WINDOW 123 0 0 Left 2
WINDOW 39 0 0 Left 2
SYMATTR InstName V1
SYMATTR Value SINE(0 1.5 50)
TEXT -66 296 Left 2 !.tran 100m
TEXT 136 320 Left 2 !.meas max_volt MAX v(out)
